@<TRIPOS>MOLECULE
LIG
   32    31     1     0     0
SMALL
bcc


@<TRIPOS>ATOM
      1 C1         -11.9330    -0.9010    13.5650 c          1 LIG       0.621100
      2 O1         -11.3250    -1.5130    12.6480 o          1 LIG      -0.485000
      3 C2         -12.5690    -1.6810    14.7130 c3         1 LIG      -0.172400
      4 C3         -12.0810    -3.1270    14.7730 c3         1 LIG      -0.073400
      5 C4         -12.7970    -3.9350    15.8530 c3         1 LIG      -0.080400
      6 C5         -13.8710    -4.8530    15.2740 c3         1 LIG      -0.079400
      7 C6         -13.6890    -6.3040    15.7130 c3         1 LIG      -0.079400
      8 C7         -14.7460    -7.2290    15.1130 c3         1 LIG      -0.078400
      9 C8         -15.0500    -6.8940    13.6550 c3         1 LIG      -0.079400
     10 C9         -14.9120    -8.1090    12.7400 c3         1 LIG      -0.080400
     11 C10        -15.8920    -8.0670    11.5700 c3         1 LIG      -0.093100
     12 O2         -12.0160     0.3550    13.5350 oh         1 LIG      -0.586100
     13 H          -13.6310    -1.6820    14.5820 hc         1 LIG       0.069700
     14 H1         -12.2880    -1.2030    15.6280 hc         1 LIG       0.069700
     15 H2         -11.0310    -3.1280    14.9810 hc         1 LIG       0.061200
     16 H3         -12.2920    -3.5830    13.8280 hc         1 LIG       0.061200
     17 H4         -13.2580    -3.2570    16.5410 hc         1 LIG       0.042700
     18 H5         -12.0680    -4.5500    16.3390 hc         1 LIG       0.042700
     19 H6         -14.8300    -4.5110    15.6030 hc         1 LIG       0.038700
     20 H7         -13.7900    -4.8200    14.2080 hc         1 LIG       0.038700
     21 H8         -12.7220    -6.6390    15.4010 hc         1 LIG       0.042200
     22 H9         -13.7910    -6.3390    16.7780 hc         1 LIG       0.042200
     23 H10        -14.3920    -8.2370    15.1680 hc         1 LIG       0.040200
     24 H11        -15.6490    -7.1010    15.6730 hc         1 LIG       0.040200
     25 H12        -16.0520    -6.5250    13.5880 hc         1 LIG       0.039200
     26 H13        -14.3410    -6.1600    13.3330 hc         1 LIG       0.039200
     27 H14        -13.9150    -8.1370    12.3530 hc         1 LIG       0.038700
     28 H15        -15.1310    -8.9820    13.3190 hc         1 LIG       0.038700
     29 H16        -15.6960    -7.2020    10.9720 hc         1 LIG       0.033033
     30 H17        -16.8930    -8.0220    11.9450 hc         1 LIG       0.033033
     31 H18        -15.7730    -8.9470    10.9740 hc         1 LIG       0.033033
     32 H19        -12.4680     0.8110    14.2170 ho         1 LIG       0.421000
@<TRIPOS>BOND
     1     1     2 2   
     2     1     3 1   
     3     1    12 1   
     4     3     4 1   
     5     3    13 1   
     6     3    14 1   
     7     4     5 1   
     8     4    15 1   
     9     4    16 1   
    10     5     6 1   
    11     5    17 1   
    12     5    18 1   
    13     6     7 1   
    14     6    19 1   
    15     6    20 1   
    16     7     8 1   
    17     7    21 1   
    18     7    22 1   
    19     8     9 1   
    20     8    23 1   
    21     8    24 1   
    22     9    10 1   
    23     9    25 1   
    24     9    26 1   
    25    10    11 1   
    26    10    27 1   
    27    10    28 1   
    28    11    29 1   
    29    11    30 1   
    30    11    31 1   
    31    12    32 1   
@<TRIPOS>SUBSTRUCTURE
     1 LIG         1 TEMP              0 ****  ****    0 ROOT
